
/*--------------------------------*- C++ -*----------------------------------*\
| =========                 |                                                 |
| \\      /  F ield         | OpenFOAM: The Open Source CFD Toolbox           |
|  \\    /   O peration     | Version:  2.2.1                                 |
|   \\  /    A nd           | Web:      www.OpenFOAM.org                      |
|    \\/     M anipulation  |                                                 |
\*---------------------------------------------------------------------------*/
FoamFile
{
    version     2.0;
    format      ascii;
    class       dictionary;
    location    "constant";
    object      Xis;
}
// * * * * * * * * * * * * * * * * * * * * * * * * * * * * * * * * * * * * * //
28
(
-1.766485662735688e+03
-1.514943121961132e+03
-1.306783128480995e+03
-1.121719095479805e+03
-9.523873153677370e+02
-7.954230659260544e+02
-6.493245662100430e+02
-5.137434245348340e+02
-3.892375482630983e+02
-2.772085504030553e+02
-1.798942417098881e+02
-1.002983167645718e+02
-4.191053058086345e+01
-8.081669586856050e+00
 8.081669586856050e+00
 4.191053058086345e+01
 1.002983167645718e+02
 1.798942417098881e+02
 2.772085504030553e+02
 3.892375482630983e+02
 5.137434245348340e+02
 6.493245662100430e+02
 7.954230659260544e+02
 9.523873153677370e+02
 1.121719095479805e+03
 1.306783128480995e+03
 1.514943121961132e+03
 1.766485662735688e+03
);