/*--------------------------------*- C++ -*----------------------------------*\
| =========                 |                                                 |
| \\      /  F ield         | OpenFOAM: The Open Source CFD Toolbox           |
|  \\    /   O peration     | Version:  2.2.1                                 |
|   \\  /    A nd           | Web:      www.OpenFOAM.org                      |
|    \\/     M anipulation  |                                                 |
\*---------------------------------------------------------------------------*/
FoamFile
{
    version     2.0;
    format      ascii;
    class       dictionary;
    object      blockMeshDict;
}
// * * * * * * * * * * * * * * * * * * * * * * * * * * * * * * * * * * * * * //

convertToMeters 1.0;

vertices
(
    (0 0 0)
    (0.5 0 0)
    (1 0 0)
    (0 0.5 0)
    (0.5 0.5 0)
    (1 0.5 0)
    (0 1 0)
    (0.5 1 0)
    (1 1 0)
    (0 0 0.1)
    (0.5 0 0.1)
    (1 0 0.1)
    (0 0.5 0.1)
    (0.5 0.5 0.1)
    (1 0.5 0.1)
    (0 1 0.1)
    (0.5 1 0.1)
    (1 1 0.1)
);

blocks
(
    hex (0 1 7 6 9 10 16 15)  (30 60 1) simpleGrading  (1 1 1)
);

edges
(
);

boundary
(
    movingWall
    {
        type wall;
        faces
        (
            (6 15 16 7)
        );
    }
    fixedWalls
    {
        type wall;
        faces
        (
            (0 9 15 6)
            (0 1 10 9)
        );
    }
    symmetryWall
    {
        type wall;
        faces
        (
            (1 7 16 10)
        );
    }
    frontAndBack
    {
        type empty;
        faces
        (
            (0 6 7 1)
            (9 10 16 15)
        );
    }
);

mergePatchPairs
(
);

// ************************************************************************* //
