/*--------------------------------*- C++ -*----------------------------------*\
| =========                 |                                                 |
| \\      /  F ield         | OpenFOAM: The Open Source CFD Toolbox           |
|  \\    /   O peration     | Version:  2.4.0                                 |
|   \\  /    A nd           | Web:      www.OpenFOAM.org                      |
|    \\/     M anipulation  |                                                 |
\*---------------------------------------------------------------------------*/
FoamFile
{
    version     2.0;
    format      ascii;
    class       polyBoundaryMesh;
    location    "constant/polyMesh";
    object      boundary;
}
// * * * * * * * * * * * * * * * * * * * * * * * * * * * * * * * * * * * * * //

4
(
    movingWall
    {
        type            wall;
        inGroups        1(wall);
        nFaces          30;
        startFace       3510;
    }
    fixedWalls
    {
        type            wall;
        inGroups        1(wall);
        nFaces          90;
        startFace       3540;
    }
    symmetryWall
    {
        type            wall;
        inGroups        1(wall);
        nFaces          60;
        startFace       3630;
    }
    frontAndBack
    {
        type            empty;
        inGroups        1(empty);
        nFaces          3600;
        startFace       3690;
    }
)

// ************************************************************************* //
