
/*--------------------------------*- C++ -*----------------------------------*\
| =========                 |                                                 |
| \\      /  F ield         | OpenFOAM: The Open Source CFD Toolbox           |
|  \\    /   O peration     | Version:  2.2.1                                 |
|   \\  /    A nd           | Web:      www.OpenFOAM.org                      |
|    \\/     M anipulation  |                                                 |
\*---------------------------------------------------------------------------*/
FoamFile
{
    version     2.0;
    format      ascii;
    class       dictionary;
    location    "constant";
    object      weights;
}
// * * * * * * * * * * * * * * * * * * * * * * * * * * * * * * * * * * * * * //
28
(
 2.903729432102395e+02
 2.243011914182848e+02
 1.948391592920267e+02
 1.764172456545240e+02
 1.627784378252140e+02
 1.513901552686665e+02
 1.408613179744801e+02
 1.302072032320505e+02
 1.185710858159069e+02
 1.051131321231802e+02
 8.901058452507309e+01
 6.958929437156898e+01
 4.661085500484188e+01
 2.066084454942525e+01
 2.066084454942525e+01
 4.661085500484188e+01
 6.958929437156898e+01
 8.901058452507309e+01
 1.051131321231802e+02
 1.185710858159069e+02
 1.302072032320505e+02
 1.408613179744801e+02
 1.513901552686665e+02
 1.627784378252140e+02
 1.764172456545240e+02
 1.948391592920267e+02
 2.243011914182848e+02
 2.903729432102395e+02
);